**** 09/02/17 19:32:26 ****** PSpice Lite (October 2012) ****** ID# 10813 ****

 ** Profile: "Trabalho-sim"  [ c:\orcad\orcad_16.6_lite\eletronica-iv-trabalho-pspicefiles\trabalho\sim.sim ] 


 ****     FOURIER ANALYSIS                 TEMPERATURE =   27.000 DEG C


******************************************************************************



FOURIER COMPONENTS OF TRANSIENT RESPONSE V(VOUT)



 DC COMPONENT =  -2.3581E-02

 HARMONIC   FREQUENCY     FOURIER     NORMALIZED     PHASE     NORMALIZED
    NO         (HZ)      COMPONENT     COMPONENT     (DEG)     PHASE (DEG)

     1    1.0000E+03   1.2723E+01   1.0000E+00   1.2246E+00   0.0000E+00
     2    2.0000E+03   6.0215E-03   4.7326E-04   9.6567E+01   9.4118E+01
     3    3.0000E+03   2.5477E-02   2.0024E-03   2.4467E+00  -1.2270E+00
     4    4.0000E+03   1.1189E-03   8.7937E-05   1.0369E+02   9.8789E+01
     5    5.0000E+03   1.9333E-03   1.5195E-04  -1.3474E+02  -1.4086E+02
     6    6.0000E+03   3.6781E-04   2.8909E-05  -1.0702E+02  -1.1437E+02
     7    7.0000E+03   9.9888E-04   7.8507E-05  -6.4669E+01  -7.3241E+01
     8    8.0000E+03   9.5036E-05   7.4695E-06  -1.2440E+02  -1.3420E+02
     9    9.0000E+03   1.0911E-03   8.5755E-05  -7.6945E+01  -8.7966E+01
    10    1.0000E+04   1.7854E-04   1.4033E-05  -1.2522E+02  -1.3747E+02
    11    1.1000E+04   9.3674E-04   7.3624E-05  -7.8336E+01  -9.1806E+01
    12    1.2000E+04   1.2649E-04   9.9415E-06  -9.8439E+01  -1.1313E+02
    13    1.3000E+04   1.0154E-03   7.9805E-05  -7.6315E+01  -9.2234E+01
    14    1.4000E+04   1.6599E-04   1.3046E-05  -1.1822E+02  -1.3536E+02
    15    1.5000E+04   8.8506E-04   6.9562E-05  -7.6448E+01  -9.4817E+01
    16    1.6000E+04   1.2384E-04   9.7332E-06  -8.8091E+01  -1.0768E+02
    17    1.7000E+04   9.6174E-04   7.5589E-05  -7.3449E+01  -9.4267E+01
    18    1.8000E+04   1.5880E-04   1.2481E-05  -1.1368E+02  -1.3572E+02
    19    1.9000E+04   8.3724E-04   6.5803E-05  -7.2103E+01  -9.5370E+01
    20    2.0000E+04   1.1541E-04   9.0705E-06  -8.7229E+01  -1.1172E+02
    21    2.1000E+04   8.9417E-04   7.0278E-05  -7.0868E+01  -9.6584E+01
    22    2.2000E+04   1.5217E-04   1.1960E-05  -1.1174E+02  -1.3868E+02
    23    2.3000E+04   7.9152E-04   6.2210E-05  -7.0180E+01  -9.8344E+01
    24    2.4000E+04   1.1389E-04   8.9513E-06  -8.9106E+01  -1.1850E+02
    25    2.5000E+04   8.2471E-04   6.4819E-05  -6.7283E+01  -9.7897E+01
    26    2.6000E+04   1.2752E-04   1.0022E-05  -1.0686E+02  -1.3870E+02
    27    2.7000E+04   7.4722E-04   5.8728E-05  -6.6561E+01  -9.9625E+01
    28    2.8000E+04   9.3531E-05   7.3512E-06  -9.3653E+01  -1.2794E+02
    29    2.9000E+04   7.4308E-04   5.8403E-05  -6.4261E+01  -9.9773E+01
    30    3.0000E+04   1.3311E-04   1.0462E-05  -1.0398E+02  -1.4071E+02
    31    3.1000E+04   6.6902E-04   5.2582E-05  -6.2286E+01  -1.0025E+02
    32    3.2000E+04   1.0045E-04   7.8946E-06  -1.0436E+02  -1.4355E+02
    33    3.3000E+04   6.6154E-04   5.1995E-05  -6.0091E+01  -1.0050E+02
    34    3.4000E+04   9.9696E-05   7.8357E-06  -1.0458E+02  -1.4621E+02
    35    3.5000E+04   6.2321E-04   4.8982E-05  -5.9204E+01  -1.0206E+02
    36    3.6000E+04   9.5423E-05   7.4999E-06  -1.0980E+02  -1.5388E+02
    37    3.7000E+04   5.8959E-04   4.6339E-05  -5.7360E+01  -1.0267E+02
    38    3.8000E+04   9.1561E-05   7.1963E-06  -1.0708E+02  -1.5361E+02
    39    3.9000E+04   5.4670E-04   4.2969E-05  -5.5040E+01  -1.0280E+02
    40    4.0000E+04   8.0785E-05   6.3494E-06  -1.1247E+02  -1.6146E+02
    41    4.1000E+04   5.1251E-04   4.0281E-05  -5.2547E+01  -1.0275E+02
    42    4.2000E+04   7.8219E-05   6.1477E-06  -1.1606E+02  -1.6749E+02
    43    4.3000E+04   4.7378E-04   3.7237E-05  -5.0888E+01  -1.0354E+02
    44    4.4000E+04   7.9811E-05   6.2728E-06  -1.2077E+02  -1.7465E+02
    45    4.5000E+04   4.3518E-04   3.4203E-05  -5.0533E+01  -1.0564E+02
    46    4.6000E+04   5.0283E-05   3.9520E-06  -1.1839E+02  -1.7472E+02
    47    4.7000E+04   4.1286E-04   3.2449E-05  -5.0079E+01  -1.0763E+02
    48    4.8000E+04   6.1419E-05   4.8272E-06  -1.3048E+02  -1.8926E+02
    49    4.9000E+04   3.6492E-04   2.8681E-05  -4.5378E+01  -1.0538E+02
    50    5.0000E+04   5.0388E-05   3.9603E-06  -1.4062E+02  -2.0185E+02
    51    5.1000E+04   3.3432E-04   2.6276E-05  -4.3452E+01  -1.0590E+02
    52    5.2000E+04   5.6147E-05   4.4129E-06  -1.3653E+02  -2.0021E+02
    53    5.3000E+04   2.8860E-04   2.2683E-05  -4.0627E+01  -1.0553E+02
    54    5.4000E+04   4.7981E-05   3.7711E-06  -1.5848E+02  -2.2461E+02
    55    5.5000E+04   2.4214E-04   1.9032E-05  -3.6820E+01  -1.0417E+02
    56    5.6000E+04   5.3002E-05   4.1658E-06  -1.7478E+02  -2.4336E+02
    57    5.7000E+04   2.2684E-04   1.7828E-05  -3.3233E+01  -1.0303E+02
    58    5.8000E+04   5.0081E-05   3.9362E-06  -1.7658E+02  -2.4760E+02
    59    5.9000E+04   1.9146E-04   1.5048E-05  -3.0425E+01  -1.0267E+02
    60    6.0000E+04   6.2907E-05   4.9442E-06  -1.7479E+02  -2.4827E+02
    61    6.1000E+04   1.4445E-04   1.1353E-05  -2.3678E+01  -9.8376E+01
    62    6.2000E+04   7.1635E-05   5.6302E-06  -1.7880E+02  -2.5472E+02
    63    6.3000E+04   1.1647E-04   9.1538E-06  -1.9665E+01  -9.6812E+01
    64    6.4000E+04   6.3234E-05   4.9699E-06   1.7752E+02   9.9147E+01
    65    6.5000E+04   9.3608E-05   7.3572E-06  -1.1007E+01  -9.0604E+01
    66    6.6000E+04   6.4818E-05   5.0944E-06   1.7656E+02   9.5739E+01
    67    6.7000E+04   7.1041E-05   5.5835E-06   2.2030E+01  -6.0016E+01
    68    6.8000E+04   7.4278E-05   5.8379E-06   1.6083E+02   7.7563E+01
    69    6.9000E+04   7.7873E-05   6.1205E-06   4.2512E+01  -4.1983E+01
    70    7.0000E+04   8.1736E-05   6.4241E-06   1.6338E+02   7.7658E+01
    71    7.1000E+04   7.9014E-05   6.2102E-06   6.3925E+01  -2.3019E+01
    72    7.2000E+04   9.7194E-05   7.6390E-06   1.5836E+02   7.0195E+01
    73    7.3000E+04   8.9802E-05   7.0580E-06   7.4869E+01  -1.4524E+01
    74    7.4000E+04   9.6644E-05   7.5958E-06   1.5210E+02   6.1477E+01
    75    7.5000E+04   1.1423E-04   8.9783E-06   9.6803E+01   4.9611E+00
    76    7.6000E+04   1.0936E-04   8.5955E-06   1.5503E+02   6.1967E+01
    77    7.7000E+04   1.2270E-04   9.6435E-06   1.0258E+02   8.2837E+00
    78    7.8000E+04   1.2106E-04   9.5151E-06   1.5668E+02   6.1162E+01
    79    7.9000E+04   1.4959E-04   1.1757E-05   1.1011E+02   1.3366E+01
    80    8.0000E+04   1.1139E-04   8.7549E-06   1.4856E+02   5.0598E+01
    81    8.1000E+04   1.6743E-04   1.3160E-05   1.1832E+02   1.9127E+01
    82    8.2000E+04   1.0964E-04   8.6172E-06   1.4627E+02   4.5853E+01
    83    8.3000E+04   1.9456E-04   1.5292E-05   1.1943E+02   1.7789E+01
    84    8.4000E+04   1.2029E-04   9.4540E-06   1.5265E+02   4.9785E+01
    85    8.5000E+04   2.1942E-04   1.7245E-05   1.1959E+02   1.5505E+01
    86    8.6000E+04   1.1429E-04   8.9830E-06   1.4585E+02   4.0539E+01
    87    8.7000E+04   2.3432E-04   1.8417E-05   1.1987E+02   1.3332E+01
    88    8.8000E+04   1.1751E-04   9.2362E-06   1.4886E+02   4.1102E+01
    89    8.9000E+04   2.6928E-04   2.1165E-05   1.2388E+02   1.4896E+01
    90    9.0000E+04   1.2613E-04   9.9135E-06   1.5002E+02   3.9807E+01
    91    9.1000E+04   2.8274E-04   2.2222E-05   1.2619E+02   1.4754E+01
    92    9.2000E+04   1.4668E-04   1.1528E-05   1.4905E+02   3.6389E+01
    93    9.3000E+04   2.9973E-04   2.3558E-05   1.2726E+02   1.3372E+01
    94    9.4000E+04   1.3939E-04   1.0955E-05   1.4312E+02   2.8006E+01
    95    9.5000E+04   3.3170E-04   2.6070E-05   1.2694E+02   1.0608E+01
    96    9.6000E+04   1.4734E-04   1.1581E-05   1.4280E+02   2.5244E+01
    97    9.7000E+04   3.4917E-04   2.7444E-05   1.2990E+02   1.1119E+01
    98    9.8000E+04   1.6446E-04   1.2926E-05   1.4067E+02   2.0668E+01
    99    9.9000E+04   3.5968E-04   2.8270E-05   1.3184E+02   1.0606E+01
   100    1.0000E+05   1.6621E-04   1.3063E-05   1.3879E+02   1.6330E+01


     TOTAL HARMONIC DISTORTION =   2.0867E-01 PERCENT


          JOB CONCLUDED