
**** 09/02/17 19:42:07 ****** PSpice Lite (October 2012) ****** ID# 10813 ****

 ** Profile: "Trabalho-sim"  [ c:\orcad\orcad_16.6_lite\eletronica-iv-trabalho-pspicefiles\trabalho\sim.sim ] 


 ****     CIRCUIT DESCRIPTION


******************************************************************************




** Creating circuit file "sim.cir" 
** WARNING: THIS AUTOMATICALLY GENERATED FILE MAY BE OVERWRITTEN BY SUBSEQUENT SIMULATIONS

*Libraries: 
* Profile Libraries :
* Local Libraries :
.LIB "../../../eletronica-iv-trabalho-pspicefiles/trabalho/sim/tip30.lib" 
.LIB "../../../eletronica-iv-trabalho-pspicefiles/trabalho/sim/tip29.lib" 
.LIB "../../../eletronica-iv-trabalho-pspicefiles/trabalho/sim/diode.lib" 
.LIB "../../../eletronica-iv-trabalho-pspicefiles/trabalho/sim/bipolar.lib" 
* From [PSPICE NETLIST] section of C:\SPB_Data\cdssetup\OrCAD_PSpice/16.6.0/PSpice.ini file:
.lib "nomd.lib" 

*Analysis directives: 
.TRAN  0 100ms 50ms 1us 
.FOUR 1khz 100 V([VOUT]) 
.WCASE TRAN V YMAX VARY BOTH  HI 
-------------------$
ERROR(ORPSIM-16111): Invalid function
.OPTIONS ADVCONV
.PROBE64 V(alias(*)) I(alias(*)) W(alias(*)) D(alias(*)) NOISE(alias(*)) 
.INC "..\Trabalho.net" 



**** INCLUDING Trabalho.net ****
* source ELETRONICA-IV-TRABALHO
.EXTERNAL OUTPUT +Vcc
.EXTERNAL OUTPUT -Vcc
.EXTERNAL OUTPUT Vin
.EXTERNAL OUTPUT Vout
Q_Q1         +VCC N00406 N000402 BC547B
Q_Q2         N00109 N00476 N000762 BC547B
R_R1         N00109 +VCC  2.550k TC=0,0 
R_R2         N00201 N000402  88.7 TC=0,0 
R_R3         N00201 N000762  88.7 TC=0,0 
R_R4         -VCC N00201  8.66k TC=0,0 
Q_Q3         N01055 N00476 N002452 BC557B
Q_Q4         -VCC N00406 N002632 BC557B
R_R5         N002632 N00357  88.7 TC=0,0 
R_R6         N002452 N00357  88.7 TC=0,0 
R_R7         N00357 +VCC  8.66k TC=0,0 
R_R8         -VCC N01055  2.550k TC=0,0 
Q_Q5         +VCC N00918 N004411 QTIP29 
Q_Q6         -VCC N01096 N004701 QTIP30 
Q_Q7         N00931 N00109 N007482 BC557B
R_R9         N007482 +VCC  1.820k TC=0,0 
Q_Q8         +VCC N00931 N00918 BC547B
Q_Q9         N01089 N01055 N010372 BC547B
Q_Q10         -VCC N01089 N01096 BC557B
R_R10         VOUT N004411  0.47 TC=0,0 
R_R11         N004701 VOUT  0.47 TC=0,0 
R_R12         N00476 0  47k TC=0,0 
C_C1         N00476 VIN  220nF  TC=0,0 
R_R13         N01432 N00931 {9.9k*0.5+.001}
Q_Q11         N00931 N01432 N01089 BC547B
R_R14         N01089 N01432  3.3k TC=0,0 
R_R15         N01096 N00918  1.4k TC=0,0 
R_R17         N016741 N00406  2.2k TC=0,0 
C_C2         0 N016741  10u  TC=0,0 
R_R18         0 VOUT  8 TC=0,0 
R_R19         -VCC N010372  1.820k TC=0,0 
R_R20         VOUT N00406 {46.2k*0.5+.001}
V_V5         0 -VCC 18v
V_V4         +VCC 0 18v
V_V6         VIN 0  AC 1
+SIN 0 1.1 1khz 0 0 0

**** RESUMING sim.cir ****
.END
